Version 4
SHEET 1 1308 680
WIRE 96 -240 -16 -240
WIRE 224 -240 96 -240
WIRE 272 -240 224 -240
WIRE 512 -240 352 -240
WIRE 768 -240 512 -240
WIRE 944 -240 768 -240
WIRE 96 -160 96 -240
WIRE 224 -128 224 -240
WIRE 768 -112 768 -240
WIRE 224 -48 224 -64
WIRE 320 -48 224 -48
WIRE 944 -48 944 -240
WIRE 96 -32 96 -96
WIRE 224 -16 224 -48
WIRE 320 0 320 -48
WIRE 512 0 512 -240
WIRE 576 0 512 0
WIRE 944 16 944 0
WIRE 768 48 768 -32
WIRE 576 64 576 0
WIRE 96 80 96 32
WIRE -16 96 -16 -240
WIRE 768 176 768 112
WIRE 96 192 96 144
WIRE 224 192 224 64
WIRE 224 192 96 192
WIRE 272 192 224 192
WIRE 368 192 352 192
WIRE 512 192 512 0
WIRE 368 208 368 192
WIRE 480 208 368 208
WIRE 576 224 576 144
WIRE 576 224 544 224
WIRE 592 224 576 224
WIRE 704 224 672 224
WIRE 480 240 368 240
WIRE -16 272 -16 176
WIRE 80 272 -16 272
WIRE 272 272 80 272
WIRE 368 272 368 240
WIRE 368 272 352 272
WIRE 80 304 80 272
WIRE 512 304 512 256
WIRE 768 320 768 272
WIRE -16 336 -16 272
WIRE 32 336 -16 336
WIRE 272 336 128 336
FLAG 320 0 0
FLAG 944 16 0
FLAG 768 320 0
FLAG 512 304 0
FLAG 464 272 U2
FLAG 272 416 0
SYMBOL res -32 80 R0
SYMATTR InstName R1
SYMATTR Value 11k
SYMBOL diode 80 -32 R0
SYMATTR InstName D2
SYMATTR Value 1N4148
SYMBOL diode 80 80 R0
SYMATTR InstName D3
SYMATTR Value 1N4148
SYMBOL diode 80 -160 R0
SYMATTR InstName D1
SYMATTR Value 1N4148
SYMBOL res 368 176 R90
WINDOW 0 0 56 VBottom 2
WINDOW 3 32 56 VTop 2
SYMATTR InstName R5
SYMATTR Value 11k
SYMBOL res 368 256 R90
WINDOW 0 0 56 VBottom 2
WINDOW 3 32 56 VTop 2
SYMATTR InstName R6
SYMATTR Value 11k
SYMBOL LED 752 48 R0
SYMATTR InstName D5
SYMATTR Value NSCW100
SYMBOL zener 240 -64 R180
WINDOW 0 24 64 Left 2
WINDOW 3 -130 3 Left 2
SYMATTR InstName D4
SYMATTR Value BZX79C6V8
SYMATTR Description Diode
SYMATTR Type diode
SYMBOL res 368 -256 R90
WINDOW 0 0 56 VBottom 2
WINDOW 3 32 56 VTop 2
SYMATTR InstName R4
SYMATTR Value 390
SYMBOL res 752 -128 R0
SYMATTR InstName R8
SYMATTR Value 470
SYMBOL npn 704 176 R0
SYMATTR InstName Q1
SYMBOL res 688 208 R90
WINDOW 0 0 56 VBottom 2
WINDOW 3 32 56 VTop 2
SYMATTR InstName R7
SYMATTR Value 11k
SYMBOL res 208 -32 R0
WINDOW 0 35 44 Left 2
SYMATTR InstName R3
SYMATTR Value 11k
SYMBOL EXTRA\\Misc\\pot 80 336 R90
SYMATTR InstName U2
SYMATTR Value R=1
SYMBOL MiniSyms4\\battery- 944 -16 R0
WINDOW 3 26 3 Center 2
SYMATTR Value 9
SYMATTR InstName V2
SYMBOL SBORKA\\COMPARATOR\\lm393 512 224 R0
SYMATTR InstName U3
SYMBOL res 560 48 R0
SYMATTR InstName R2
SYMATTR Value 11k
SYMBOL res 256 320 R0
SYMATTR InstName R9
SYMATTR Value 50
TEXT 304 456 Left 2 !.tran 100
